<?xml version="1.0" encoding="UTF-8"?>
<febio_spec version="3.0">
    <!--Created using GIBBON, 26-Aug-2021 10:16:04-->
    <Module type="solid"/>
    <Control>
        <analysis>STATIC</analysis>
        <time_steps>10</time_steps>
        <step_size>1.0000000e-01</step_size>
        <solver>
            <max_refs>25</max_refs>
            <max_ups>0</max_ups>
            <diverge_reform>1</diverge_reform>
            <reform_each_time_step>1</reform_each_time_step>
            <dtol>1.0000000e-03</dtol>
            <etol>1.0000000e-02</etol>
            <rtol>0</rtol>
            <lstol>9.0000000e-01</lstol>
            <lsmin>1.0000000e-02</lsmin>
            <lsiter>5</lsiter>
            <min_residual>1.0000000e-20</min_residual>
            <optimize_bw>0</optimize_bw>
            <qnmethod>0</qnmethod>
            <cmax>100000</cmax>
        </solver>
        <time_stepper>
            <dtmin>1.0000000e-03</dtmin>
            <dtmax>1.0000000e-01</dtmax>
            <max_retries>5</max_retries>
            <opt_iter>6</opt_iter>
        </time_stepper>
        <plot_level>PLOT_MAJOR_ITRS</plot_level>
        <plot_range>0, -1</plot_range>
        <plot_stride>1</plot_stride>
        <plot_zero_state>0</plot_zero_state>
        <output_level>OUTPUT_MAJOR_ITRS</output_level>
    </Control>
    <Globals>
        <Constants>
            <T>8.3140000e-06</T>
            <R>298</R>
            <Fc>9.6485000e-05</Fc>
        </Constants>
    </Globals>
    <Material>
        <material id="1" name="corticalMat" type="neo-Hookean">
            <E>18600</E>
            <v>3.0000000e-01</v>
        </material>
        <material id="2" name="trabecularMat" type="neo-Hookean">
            <E>10400</E>
            <v>3.0000000e-01</v>
        </material>
    </Material>
    <Mesh>
        <Nodes name="tibiaNodes">
                <node id="1">-5.6746978e+00, 1.2774215e+02, -9.9789885e+00</node>
                <node id="2">-3.0467357e+00, 1.2618264e+02, -1.1459008e+01</node>
                <node id="3">-3.6609694e+00, 1.3085825e+02, -1.1459555e+01</node>
                <node id="4">-6.1487269e+00, 1.3155255e+02, -9.0213396e+00</node>
                <node id="5">-6.5313590e+00, 1.2843321e+02, -6.5261839e+00</node>
                <node id="6">-6.5749676e+00, 1.2465117e+02, -7.5381010e+00</node>
                <node id="7">-5.1437896e+00, 1.2338742e+02, -1.0383115e+01</node>
                <node id="8">-1.7233213e+00, 1.2242183e+02, -1.1503202e+01</node>
                <node id="9">5.7019517e-01, 1.2562041e+02, -1.1532517e+01</node>
                <node id="10">-9.1838310e-01, 1.2912773e+02, -1.1767315e+01</node>
                <node id="11">-1.5448117e-01, 1.3310013e+02, -1.1904705e+01</node>
                <node id="12">-4.2416764e+00, 1.3444613e+02, -1.1249237e+01</node>
                <node id="13">-6.2648128e+00, 1.3524069e+02, -8.0130868e+00</node>
                <node id="14">-6.3028048e+00, 1.3221478e+02, -5.3645252e+00</node>
                <node id="15">-6.1018942e+00, 1.2542226e+02, -3.8246225e+00</node>
                <node id="16">-5.8056607e+00, 1.2914049e+02, -2.8243186e+00</node>
                <node id="17">-6.4361804e+00, 1.2163906e+02, -4.8513849e+00</node>
                <node id="18">-6.5332727e+00, 1.2055402e+02, -8.2597659e+00</node>
                <node id="19">-4.2778088e+00, 1.1952009e+02, -1.0861574e+01</node>
                <node id="20">-6.0557609e-01, 1.1867169e+02, -1.1339697e+01</node>
<!-- ... 9706 like lines cut -->
        </Nodes>
        <Elements name="CorticalBone" type="tet4">
                <elem id="1">4717, 4183, 4936, 5543</elem>
                <elem id="2">21, 20, 5427, 9215</elem>
                <elem id="3">5725, 86, 5891, 6903</elem>
                <elem id="4">3443, 2401, 3501, 3441</elem>
                <elem id="5">1792, 3460, 1782, 3461</elem>
                <elem id="6">4195, 4196, 4732, 4936</elem>
                <elem id="7">2056, 2017, 2016, 9051</elem>
                <elem id="8">1626, 1629, 5005, 7222</elem>
                <elem id="9">4582, 4555, 5421, 5434</elem>
                <elem id="10">2942, 2984, 2159, 2943</elem>
                <elem id="11">4928, 5738, 6398, 7273</elem>
                <elem id="12">5339, 346, 6705, 9166</elem>
                <elem id="13">4295, 988, 986, 7958</elem>
                <elem id="14">59, 58, 87, 5806</elem>
                <elem id="15">1844, 1878, 7782, 8808</elem>
                <elem id="16">2752, 2411, 2471, 2410</elem>
                <elem id="17">1345, 4493, 1282, 4457</elem>
                <elem id="18">43, 4042, 5330, 9048</elem>
                <elem id="19">5032, 6071, 6647, 9244</elem>
                <elem id="20">1374, 1438, 1375, 5822</elem>
<!-- ... 23622 like lines cut -->
        </Elements>
        <Elements name="TrabecularBone" type="tet4">
                <elem id="23643">5996, 4782, 8004, 8955</elem>
                <elem id="23644">6638, 7793, 7807, 8982</elem>
                <elem id="23645">7791, 6808, 8704, 8779</elem>
                <elem id="23646">7155, 7140, 7161, 8607</elem>
                <elem id="23647">6788, 7951, 8797, 9608</elem>
                <elem id="23648">6880, 8998, 9458, 9570</elem>
                <elem id="23649">2854, 2827, 5294, 5941</elem>
                <elem id="23650">3134, 3141, 3188, 5904</elem>
                <elem id="23651">3198, 3256, 5257, 7269</elem>
                <elem id="23652">3629, 3583, 3630, 8884</elem>
                <elem id="23653">4093, 4094, 4085, 6713</elem>
                <elem id="23654">7893, 7682, 8428, 7974</elem>
                <elem id="23655">4346, 4329, 4791, 5933</elem>
                <elem id="23656">5351, 6236, 7484, 7574</elem>
                <elem id="23657">5955, 5962, 8457, 8738</elem>
                <elem id="23658">5370, 7313, 7878, 7973</elem>
                <elem id="23659">4419, 4391, 4404, 8166</elem>
                <elem id="23660">3119, 3068, 3123, 5728</elem>
                <elem id="23661">6436, 6279, 7021, 8680</elem>
                <elem id="23662">5898, 4898, 7145, 9241</elem>
<!-- ... 28356 like lines cut -->
        </Elements>
        <NodeSet name="bcForcePrescribeList">
                <node id="1446"/>
                <node id="1511"/>
                <node id="1512"/>
                <node id="1513"/>
                <node id="1514"/>
                <node id="1515"/>
                <node id="1516"/>
                <node id="1517"/>
                <node id="1519"/>
                <node id="1520"/>
                <node id="1521"/>
                <node id="1525"/>
                <node id="1526"/>
                <node id="1544"/>
                <node id="1547"/>
                <node id="1575"/>
                <node id="1576"/>
                <node id="1577"/>
                <node id="1578"/>
                <node id="1579"/>
<!-- ... 42 like lines cut -->
        </NodeSet>
        <NodeSet name="bcPlateauPrescribeList">
                <node id="2444"/>
                <node id="2445"/>
                <node id="2452"/>
                <node id="2473"/>
                <node id="2501"/>
                <node id="2502"/>
                <node id="2503"/>
                <node id="2504"/>
                <node id="2508"/>
                <node id="2509"/>
                <node id="2510"/>
                <node id="2521"/>
                <node id="2524"/>
                <node id="2525"/>
                <node id="2526"/>
                <node id="2527"/>
                <node id="2528"/>
                <node id="2529"/>
                <node id="2530"/>
                <node id="2531"/>
<!-- ... 174 like lines cut -->
        </NodeSet>
        <NodeSet name="medMalNodes">
                <node id="1538"/>
        </NodeSet>
    </Mesh>
    <MeshDomains>
        <SolidDomain mat="corticalMat" name="CorticalBone"/>
        <SolidDomain mat="trabecularMat" name="TrabecularBone"/>
    </MeshDomains>
    <MeshData>
        <NodeData datatype="vec3" name="force_joint" node_set="bcForcePrescribeList">
                <node lid="1">-5.4432795e+00, 1.1279414e+02, -0.0000000e+00</node>
                <node lid="2">0.0000000e+00, 1.4664297e+02, -0.0000000e+00</node>
                <node lid="3">0.0000000e+00, 1.5464921e+02, -0.0000000e+00</node>
                <node lid="4">-1.0108878e+01, 1.5994883e+02, -0.0000000e+00</node>
                <node lid="5">-1.6921020e+01, 1.2933739e+02, -0.0000000e+00</node>
                <node lid="6">-1.9146660e+01, 1.4105147e+02, -0.0000000e+00</node>
                <node lid="7">-1.1937945e+01, 1.0130470e+02, -0.0000000e+00</node>
                <node lid="8">0.0000000e+00, 1.2691674e+02, -0.0000000e+00</node>
                <node lid="9">0.0000000e+00, 1.5930152e+02, 7.3427545e+01</node>
                <node lid="10">-2.7125619e+00, 1.6512880e+02, 7.9421956e+00</node>
                <node lid="11">-1.2193942e+01, 1.4992106e+02, -0.0000000e+00</node>
                <node lid="12">0.0000000e+00, 1.0261157e+02, -0.0000000e+00</node>
                <node lid="13">0.0000000e+00, 1.5597557e+02, 7.5811988e+00</node>
                <node lid="14">-1.3601819e+01, 1.6014549e+02, 2.0946294e+01</node>
                <node lid="15">-2.4351231e+00, 1.6319845e+02, -0.0000000e+00</node>
                <node lid="16">0.0000000e+00, 1.4837257e+02, -0.0000000e+00</node>
                <node lid="17">0.0000000e+00, 1.5765466e+02, -0.0000000e+00</node>
                <node lid="18">0.0000000e+00, 1.6124087e+02, -0.0000000e+00</node>
                <node lid="19">0.0000000e+00, 1.6425799e+02, -0.0000000e+00</node>
                <node lid="20">-5.0289083e+00, 1.6438117e+02, -0.0000000e+00</node>
<!-- ... 42 like lines cut -->
        </NodeData>
    </MeshData>
    <Boundary>
        <bc node_set="bcPlateauPrescribeList" type="fix">
            <dofs>x,y,z</dofs>
        </bc>
        <bc node_set="bcPlateauPrescribeList" type="fix">
            <dofs>u,v,w</dofs>
        </bc>
        <bc node_set="medMalNodes" type="fix">
            <dofs>x,z</dofs>
        </bc>
    </Boundary>
    <Loads>
        <nodal_load name="jointForce" node_set="bcForcePrescribeList" type="nodal_force">
            <value lc="1" type="map">force_joint</value>
        </nodal_load>
    </Loads>
    <LoadData>
        <load_controller id="1" type="loadcurve">
            <interpolate>LINEAR</interpolate>
            <points>
                    <point>0, 0</point>
                    <point>1, 1</point>
            </points>
        </load_controller>
    </LoadData>
    <Output>
        <plotfile type="febio">
            <var type="displacement"/>
            <var type="stress"/>
            <var type="relative volume"/>
            <var type="reaction forces"/>
            <var type="contact pressure"/>
        </plotfile>
        <logfile file="C:\+GitRepos+\tibial-geometry\piloting\tibial-loading\nmdid\tibiaModel.txt">
            <node_data data="ux;uy;uz" delim="," file="tibiaModel_disp_out.txt"/>
            <element_data data="s1;s2;s3" delim="," file="tibiaModel_stress_out.txt"/>
            <element_data data="sed" delim="," file="tibiaModel_energy_out.txt"/>
        </logfile>
    </Output>
</febio_spec>
